14
  0.00000079   0.10984774   2.20974533  43.11620171 -231.64812750   1.52298584   0.00000000
C 1.07512176 -1.2294007 -0.2809004
C 1.40992020 0.02432743 0.34277483
C 0.72895808 1.23898017 0.15971967
C -0.6508196 1.20365943 -0.2280950
C -1.4813190 0.09467667 -0.1674402
C -1.0387038 -1.1803349 0.36121205
H 1.37008444 -2.1569997 0.27077705
H 0.48584983 -1.1746663 -1.4509648
H 2.49874807 0.14702160 0.47919804
H 1.23514183 2.12506784 0.28562218
H -1.1438718 2.14758963 -0.4812143
H -2.5546837 0.07769759 -0.3581413
H -1.3968530 -2.1403876 -0.1136907
H -1.0308221 -1.4701935 1.38832583
