14
  0.00000098   0.09687633   2.21980613  44.35684040 -231.66496399   1.97641290   0.00000000
C 0.99913686 -1.1909239 -0.2742935
C 1.47193859 0.04484446 0.31125367
C 0.69110301 1.20140965 0.17498014
C -0.6628184 1.27601034 -0.2098882
C -1.3728256 0.04130123 -0.2009514
C -1.1183742 -1.2451360 0.38959421
H 1.46844566 -2.1046363 0.13097130
H 0.61517451 -1.1926649 -1.4105800
H 2.52091394 0.16350932 0.45132874
H 1.10652332 2.16795135 0.35364025
H -1.0888085 2.20592611 -0.5641277
H -2.4566972 0.20626075 -0.4139975
H -1.4025981 -2.2320354 -0.0550503
H -0.8822061 -1.3683204 1.48693733
