14
  NIST    06301517073D 1   1.00000  -233.41892
C   2.8881    1.6376    3.3901
C   3.7477    1.8510    2.1306
C   3.3276    0.9396    0.9994
C   1.4222    1.4810    3.0528
C   2.0499    0.5402    0.8868
C   1.0481    0.9447    1.8793
H   3.0409    2.4658    4.0920
H   3.2243    0.7277    3.9164
H   4.8076    1.7095    2.3729
H   3.6510    2.8966    1.7907
H   4.0644    0.6690    0.2462
H   0.6824    1.7503    3.8035
H   1.7315   -0.0740    0.0474
H  -0.0034    0.7835    1.6521
