
  NIST    06301517073D 1   1.00000  -233.41892
Copyright by the U.S. Sec. Commerce on behalf of U.S.A. All rights reserved.
 14 14  0  0  0  0  0  0  0  0999 V2000
    2.8881    1.6376    3.3901 C    0  0  0  0  0  0  0  0  0  0  0  0
    3.7477    1.8510    2.1306 C    0  0  0  0  0  0  0  0  0  0  0  0
    3.3276    0.9396    0.9994 C    0  0  0  0  0  0  0  0  0  0  0  0
    1.4222    1.4810    3.0528 C    0  0  0  0  0  0  0  0  0  0  0  0
    2.0499    0.5402    0.8868 C    0  0  0  0  0  0  0  0  0  0  0  0
    1.0481    0.9447    1.8793 C    0  0  0  0  0  0  0  0  0  0  0  0
    3.0409    2.4658    4.0920 H    0  0  0  0  0  0  0  0  0  0  0  0
    3.2243    0.7277    3.9164 H    0  0  0  0  0  0  0  0  0  0  0  0
    4.8076    1.7095    2.3729 H    0  0  0  0  0  0  0  0  0  0  0  0
    3.6510    2.8966    1.7907 H    0  0  0  0  0  0  0  0  0  0  0  0
    4.0644    0.6690    0.2462 H    0  0  0  0  0  0  0  0  0  0  0  0
    0.6824    1.7503    3.8035 H    0  0  0  0  0  0  0  0  0  0  0  0
    1.7315   -0.0740    0.0474 H    0  0  0  0  0  0  0  0  0  0  0  0
   -0.0034    0.7835    1.6521 H    0  0  0  0  0  0  0  0  0  0  0  0
  1  2  1  0  0  0  0
  1  7  1  0  0  0  0
  1  8  1  0  0  0  0
  2  3  1  0  0  0  0
  2  9  1  0  0  0  0
  2 10  1  0  0  0  0
  3  5  2  0  0  0  0
  3 11  1  0  0  0  0
  4  1  1  0  0  0  0
  4 12  1  0  0  0  0
  5  6  1  0  0  0  0
  5 13  1  0  0  0  0
  6  4  2  0  0  0  0
  6 14  1  0  0  0  0
M  END
> <COPYRIGHT>
Collection (C) 2016 copyright by the U.S. Secretary of Commerce on behalf of the United States of America. All rights reserved.

> <DATE>
2015-06-30

> <CAS.NUMBER>
592-57-4

> <METHOD>
B3LYP/6-31G*

> <DIPOLE.MOMENT>
0.3776 debye

> <ELECTRONIC.ENERGY>
-233.418916579 hartree

> <IR.FREQUENCIES>
"Frequency (cm-1)"   "Intensity (km/mol)"
188.5445  0.5350
301.1156  0.7662
480.9439  5.2454
519.3115  0.2284
572.4775  0.1710
674.9891  51.9401
764.8363  7.9698
781.8057  0.7964
858.7945  0.5519
938.0548  5.3654
971.5025  0.6820
972.6024  2.1542
989.2810  0.0430
1012.6011  2.6372
1053.8030  1.1062
1078.1444  2.0283
1182.5459  0.0110
1200.7270  4.1016
1213.7330  0.8710
1280.5404  5.0406
1369.4640  0.5507
1378.3907  2.7440
1418.4872  1.4378
1456.5642  0.0651
1499.1818  1.7273
1510.7199  2.1336
1659.8940  1.6164
1724.5500  0.5275
2980.2277  14.9247
2991.4243  63.0549
3076.0491  28.5839
3076.6493  38.8201
3166.9350  0.1614
3174.1153  7.5048
3188.6064  58.3101
3197.8682  23.3734

> <ROTATIONAL.CONSTANTS>
5.05473 GHz
5.04102 GHz
2.67386 GHz

> <SOFTWARE>
Gaussian 09, Revision D.01

> <CONTRIBUTOR>
Avi Newman

$$$$
