   18
 HF-SCF000/6-31G*  ENERGY=-383.35404341
 C         -0.0000013327       -0.7046548169       -0.0000073354
 C         -0.0000108214        0.7046548144       -0.0000077913
 C          1.2427664601       -1.3926806148       -0.0000022215
 C          1.2427477098        1.3926973372       -0.0000125307
 C         -1.2427579897       -1.3926968432       -0.0000061622
 C         -1.2427767498        1.3926801224       -0.0000125056
 C          2.4163019719       -0.7082603798       -0.0000181940
 C          2.4162924292        0.7082929040       -0.0000325574
 C         -2.4163039995       -0.7082919467       -0.0000272781
 C         -2.4163135393        0.7082594321       -0.0000060999
 H          1.2404269719       -2.4686281662       -0.0000140948
 H          1.2403937506        2.4686448543       -0.0000347869
 H         -1.2404047743       -2.4686443632       -0.0000267373
 H         -1.2404379842        2.4686276681        0.0000111342
 H          3.3521075066       -1.2377581444       -0.0000407962
 H          3.3520908336        1.2378032719       -0.0000299764
 H         -3.3521018824       -1.2378032437       -0.0000228008
 H         -3.3521185603        1.2377581143       -0.0000092657
