   18
 HF-SCF000/6-311G**  ENERGY=-325.11027937
 C          1.1612887063       -0.2072115203       -1.1406002652
 C          1.1933134020        0.1946266494        0.3239258464
 H          2.0684850727       -0.2397959456        0.7978485976
 N          0.0000000000       -0.2869899214        0.9945642357
 H          1.2814731449        1.2850756065        0.3954080916
 C         -1.1933134020        0.1946266494        0.3239258464
 C          0.0000000000        0.0189833800        2.4062013793
 H          0.0000000000        1.0958451060        2.6078098777
 H          0.8770560288       -0.4126030426        2.8767430518
 H         -0.8770560288       -0.4126030426        2.8767430518
 C         -1.1612887063       -0.2072115203       -1.1406002652
 H         -1.2160709709       -1.2927022343       -1.2214031931
 O          0.0000000000        0.2604104991       -1.7646973596
 H         -2.0008832098        0.2216442753       -1.6725510177
 H          1.2160709709       -1.2927022343       -1.2214031931
 H          2.0008832098        0.2216442753       -1.6725510177
 H         -1.2814731449        1.2850756065        0.3954080916
 H         -2.0684850727       -0.2397959456        0.7978485976
