    7
 HF-SCF000/6-31G*  ENERGY=-993.98122063
 S         -0.0000000017       -0.0000000017        0.0000000245
 F          0.0000000011        0.0000000008        1.5554624914
 F          1.0998847756       -1.0998847740       -0.0000000143
 F         -1.0998780684       -1.0998780681       -0.0000000132
 F         -1.0998847736        1.0998847759       -0.0000000140
 F          1.0998780663        1.0998780660       -0.0000000132
 F          0.0000000008        0.0000000011       -1.5554624612
