14
  0.00024272   0.19221796   1.88428221  30.68494524 -231.71235137   2.98289804   0.00000000
C 0.86526499 -1.1847761 -0.2242608
C 1.47609757 0.04554029 0.19994860
C 0.67863304 1.27571537 0.32027945
C -0.6082085 1.15659200 -0.3199148
C -1.4565708 0.05750643 -0.0772319
C -0.9466397 -1.2092670 0.29238299
H 1.38756050 -2.0618647 0.15258111
H 0.88636690 -1.2515875 -1.3141108
H 2.45468356 -0.0098088 0.65719173
H 1.15613746 2.24252342 0.35033062
H -0.8877705 1.92137137 -1.0355364
H -2.5293726 0.22354079 0.01480034
H -1.4796954 -2.0149313 -0.2123978
H -1.1122585 -1.3675904 1.36037126
