14
  0.00023442   0.23493501   1.43315231  28.35396955 -231.72787002   6.75244650   0.00000000
C 0.69682477 -1.1759198 -0.1762534
C 1.42024145 -0.0104617 0.28960778
C 0.70400431 1.24707324 0.25571094
C -0.6558498 1.26484139 -0.2659691
C -1.5658597 0.22406315 -0.1434669
C -0.6299075 -1.3874225 0.32271895
H 1.25145384 -2.0865678 0.00942157
H 0.57889791 -1.1044438 -1.2645520
H 2.49964068 -0.0433830 0.36403201
H 1.25791388 2.16061107 0.13588566
H -0.9007025 2.08725129 -0.9419099
H -2.5055284 0.18018382 -0.6947791
H -1.1221907 -2.2510654 -0.1281015
H -0.7175819 -1.5094649 1.40687334
