14
  0.00018481   0.07808540   1.88587228  39.68007909 -231.70696476   2.09177238   0.00000000
C 0.92193807 -1.2543364 -0.2042571
C 1.39969531 -0.0112741 0.24033734
C 0.71606668 1.21032407 0.12370690
C -0.6927762 1.27822886 -0.1294563
C -1.4635832 0.04531030 -0.2889478
C -0.8761381 -1.1444097 0.35373222
H 1.55843838 -2.0549782 0.16312657
H 1.01034217 -1.2826250 -1.2956514
H 2.26331412 -0.0419196 0.89068369
H 1.25407904 2.14471346 0.16819293
H -1.1967941 2.18821787 0.15682453
H -2.5390536 0.08410057 -0.4156218
H -1.3661925 -2.0608842 0.02041153
H -1.0681433 -1.0869475 1.43001477
