14
  0.00034718   0.26267007   1.41801974  24.94142187 -231.69613021   7.11169047   0.00000000
C 0.71191530 -1.2255642 -0.1496167
C 1.45442881 0.00583593 0.19070118
C 0.67101494 1.21669680 0.25341647
C -0.6404627 1.23870520 -0.3807291
C -1.5841053 0.27316797 -0.0799555
C -0.6073178 -1.3354339 0.35864756
H 1.35761523 -2.1026935 -0.0219430
H 0.49547412 -1.1728844 -1.2267464
H 2.42662657 -0.0755110 0.67568590
H 0.94100141 2.05277408 0.88786181
H -0.9752522 2.20855280 -0.7514114
H -2.5061830 0.16716404 -0.6319871
H -0.8777967 -2.1351187 -0.3256789
H -0.9488548 -1.6431710 1.35232518
