14
  0.00032559   0.14504453   1.88977065  38.63515955 -231.72926860   1.94266979   0.00000000
C 0.90156255 -1.2303290 -0.2608015
C 1.41588709 -0.0114773 0.25650346
C 0.68098004 1.21168251 0.23120992
C -0.6597953 1.24718437 -0.2778145
C -1.4788171 0.07490978 -0.1301794
C -0.8794229 -1.1560455 0.36673786
H 1.40306792 -2.0911366 0.16893906
H 1.09220094 -1.2538169 -1.3370588
H 2.45172476 0.00846711 0.59497762
H 1.21215337 2.14456963 0.24732157
H -1.1331404 2.21375316 -0.3336271
H -2.4533362 0.03009911 -0.6002739
H -1.2685714 -2.0281641 -0.1342841
H -1.0926679 -1.2780735 1.43318747
