14
  0.00135742   0.19993384   1.52306487  32.36074006 -231.73223639   7.40792212   0.00000000
C 0.70095234 -1.1717813 -0.1973860
C 1.41538000 0.00080284 0.32603052
C 0.97795114 1.28259130 0.14249633
C -0.8714651 1.23496929 -0.2403531
C -1.4563993 0.02591802 -0.1684480
C -0.7509393 -1.2110598 0.26108355
H 1.29138481 -2.0808069 0.00281176
H 0.69205497 -1.0898331 -1.2997619
H 2.32105785 -0.1851670 0.91066693
H 1.32286918 2.10443978 0.74914925
H -1.2549600 2.00875903 -0.9022453
H -2.5247454 0.00436035 -0.0214052
H -1.3286763 -2.0948114 -0.0290568
H -0.7254342 -1.2248846 1.37054042
