14
  0.00044375   0.20293004   1.46480174  27.75325439 -231.72232689   6.05335562   0.00000000
C 0.63091964 -1.4128416 -0.2294667
C 1.44004811 0.17419075 0.43983894
C 0.77389038 1.29079193 -0.0085476
C -0.6811192 1.25748611 -0.1432784
C -1.4079635 0.03853140 -0.1463864
C -0.7481446 -1.2110456 0.22120402
H 1.24900659 -2.2657885 0.04810371
H 0.68144767 -1.3546372 -1.3225960
H 2.36158323 0.17317902 0.99831638
H 1.20976139 2.26329371 0.17374585
H -1.2109647 2.18121833 0.03840987
H -2.3994629 0.00068091 -0.5812738
H -1.3974603 -2.0517031 -0.0036686
H -0.6068232 -1.2145751 1.31099770
