14
  0.00029957   0.13799206   1.88957710  37.26595573 -231.72754611   2.39423396   0.00000000
C 0.84013666 -1.1377071 -0.2368661
C 1.48014890 0.04239373 0.22459759
C 0.72805420 1.23906545 0.22160959
C -0.6445878 1.23143343 -0.2337694
C -1.4276351 0.01219607 -0.1613480
C -0.9505339 -1.2467654 0.35651966
H 1.41250922 -2.0345894 0.00228352
H 0.76734958 -1.1010361 -1.3323763
H 2.40675912 -0.0237743 0.78006666
H 1.13743048 2.16366558 0.61099366
H -0.8926660 1.95018754 -0.9931954
H -2.5039432 0.10793638 -0.1926337
H -1.4937769 -2.0854683 -0.0884596
H -1.1605662 -1.2869328 1.43027651
