14
  0.00026779   0.13570888   1.88339263  35.00510662 -231.73830289   2.81353997   0.00000000
C 0.90781801 -1.2963804 -0.2356266
C 1.44348083 0.00196603 0.21554578
C 0.65754621 1.22685007 0.22932405
C -0.6755135 1.24324039 -0.2633955
C -1.4599625 0.07634036 -0.1540232
C -0.8811927 -1.1204522 0.32620741
H 1.44072632 -2.1244784 0.23146221
H 1.04544327 -1.3961725 -1.3132429
H 2.48332054 0.01436985 0.51747487
H 0.97156479 2.07094171 0.83053839
H -1.1493398 2.20358281 -0.3797433
H -2.4372078 0.03232074 -0.6358989
H -1.5492797 -1.9676504 0.18360579
H -0.7339411 -1.0354220 1.41074678
