14
  0.00059637   0.24251171   1.43063136  31.91563211 -231.68135162   7.09157114   0.00000000
C 0.70083232 -1.2167288 -0.2097619
C 1.40658691 -0.0037544 0.32065320
C 0.71482253 1.23471663 0.15674286
C -0.6497551 1.24642772 -0.3458593
C -1.5705155 0.23811242 -0.1455887
C -0.5962129 -1.3455380 0.37997345
H 1.31792553 -2.1017205 -0.0707602
H 0.59695552 -1.1005453 -1.2979494
H 2.38612798 -0.0648001 0.77993924
H 1.02531188 2.09064382 0.73438508
H -0.9964024 2.17943028 -0.7707485
H -2.6210562 0.38140343 0.08451664
H -0.7234336 -2.1302441 -0.3570862
H -1.0761707 -1.7144692 1.28852279
