14
  0.00039736   0.23632797   1.42536985  33.60236856 -231.65975626   7.41637300   0.00000000
C 0.56521537 -1.4169288 -0.2199314
C 1.55457909 0.18312546 0.22989087
C 0.71367951 1.26023339 0.26370933
C -0.6896736 1.24861922 -0.2026241
C -1.4138234 0.01948449 -0.2866973
C -0.7029950 -1.1275127 0.36278614
H 1.13989201 -2.3010103 0.08242576
H 0.53539127 -1.4511133 -1.3177380
H 2.44442970 0.09458958 0.85262599
H 1.19137122 2.21169681 0.08252871
H -1.2529722 2.15592153 -0.0048033
H -2.4874784 -0.0232866 -0.4780862
H -0.8824268 -2.0731149 -0.1265068
H -1.0318150 -1.2384791 1.40769541
