14
  0.00044857   0.22105392   1.43935864  30.04177190 -231.71505804   6.56247607   0.00000000
C 0.58704684 -1.4283778 -0.2027680
C 1.52986893 0.18147560 0.21878005
C 0.69381561 1.26464050 0.27587205
C -0.6793374 1.26881474 -0.1905472
C -1.4072843 0.02688045 -0.2591973
C -0.7299165 -1.1592211 0.31193113
H 0.98677447 -2.2550688 0.37616594
H 0.78015238 -1.6697500 -1.2562090
H 2.60498334 0.25099287 0.14258911
H 1.11432326 2.23050140 0.50899927
H -1.2453454 2.14497862 0.06850133
H -2.2095533 -0.1161712 -0.9846339
H -1.3397620 -2.0440763 0.16265284
H -0.6443413 -1.0138148 1.39722557
