14
  0.00027304   0.21889412   1.44067288  30.77140213 -231.70462411   6.86873095   0.00000000
C 0.60271482 -1.4149211 -0.2257237
C 1.54101347 0.18255670 0.28309721
C 0.69486449 1.26339946 0.23302369
C -0.6646908 1.24252655 -0.2269297
C -1.4306474 0.02814136 -0.2542536
C -0.7165576 -1.1600111 0.29396789
H 1.18512324 -2.2857190 0.08594835
H 0.61908461 -1.4439037 -1.3227956
H 2.38808603 0.12078394 0.96839261
H 1.16268225 2.22943713 0.06937006
H -1.1896966 2.18231738 -0.1280586
H -2.4746443 0.10270173 0.00110037
H -1.1934942 -2.0806528 -0.0445121
H -0.8372671 -1.1478509 1.39242925
