14
  0.00030662   0.22693973   1.43585979  28.19537045 -231.69474842   7.08729362   0.00000000
C 0.72994624 -1.2304655 -0.1598235
C 1.44055214 -0.0006297 0.27192073
C 0.66564631 1.20231949 0.25988979
C -0.6484603 1.26089535 -0.2964726
C -1.5879573 0.22860208 -0.2533415
C -0.6225350 -1.3296139 0.31204210
H 1.27631960 -2.1063983 0.20368927
H 0.79933040 -1.2741721 -1.2580546
H 2.48453719 0.06334805 0.01896916
H 0.97110876 2.05375126 0.84611649
H -0.9227702 2.20110220 -0.7400031
H -2.6117880 0.37615691 0.07036960
H -1.2115508 -2.2216356 0.10466707
H -0.5352908 -1.2890252 1.40642387
