14
  0.00020180   0.08785538   1.89700557  36.38261070 -231.72479251   2.06679108   0.00000000
C 0.86048897 -1.2139869 -0.2325583
C 1.40147199 0.03124376 0.28660769
C 0.72298290 1.27473393 0.11136776
C -0.6620699 1.27204651 -0.1433067
C -1.3708617 0.03576515 -0.1582712
C -0.9513809 -1.2734779 0.32620673
H 1.52489027 -2.0416131 0.00355429
H 0.82263224 -1.1525377 -1.3284698
H 2.40847524 0.00447315 0.69829675
H 1.14547023 2.16634643 0.54772285
H -1.0429329 2.08214233 -0.7491419
H -2.2913602 0.02772545 -0.7264261
H -1.7258518 -2.0078493 0.11716568
H -0.8707910 -1.2185283 1.42403059
