14
  0.00026686   0.23728941   1.46488560  31.83157736 -231.67218008   6.59304975   0.00000000
C 0.60186713 -1.4449019 -0.2524030
C 1.49096891 0.15900674 0.38226397
C 0.70802373 1.28392674 0.18107405
C -0.6562202 1.24637845 -0.3041025
C -1.4240412 0.04546347 -0.1211351
C -0.7062439 -1.1415571 0.33301751
H 1.28977884 -2.2843353 -0.1976970
H 0.40161732 -1.2942094 -1.3255013
H 2.56866427 0.18539559 0.47335512
H 1.08898588 2.24164213 0.50506760
H -1.1749464 2.19430968 -0.3615662
H -2.4158076 -0.0612839 -0.5348781
H -0.9302730 -2.0118601 -0.2701628
H -1.0212326 -1.3716796 1.35662132
