14
  0.00027826   0.21330500   1.42470103  31.53121648 -231.70973025   7.14002618   0.00000000
C 0.57602606 -1.3884169 -0.2124177
C 1.56485232 0.16782599 0.32492171
C 0.72251085 1.27021167 0.17136720
C -0.6762300 1.24773456 -0.1751187
C -1.4332945 0.00068024 -0.2398599
C -0.7323239 -1.1531892 0.30008702
H 1.05841670 -2.2776886 0.17480257
H 0.62254409 -1.4767227 -1.3054994
H 2.62756418 0.21177044 0.18119236
H 1.04890554 2.20346595 0.61604276
H -1.2323427 2.15831856 -0.0693153
H -2.3335464 -0.0977958 -0.8408122
H -1.3058945 -2.0537107 0.08615562
H -0.7643170 -1.0283334 1.39508588
