14
  0.00118065   0.19209560   1.53108993  32.48689306 -231.73732672   6.88298386   0.00000000
C 0.70585838 -1.2125920 -0.1460258
C 1.44515027 0.00127505 0.15842596
C 0.93288676 1.26452037 0.22750664
C -0.8981719 1.26133422 -0.1893331
C -1.4122566 0.01253290 -0.2973275
C -0.7475713 -1.1585638 0.33236667
H 1.20493029 -2.0886287 0.28536003
H 0.73043859 -1.3756463 -1.2381683
H 2.42124643 -0.1600266 0.60849216
H 1.32267776 2.04178055 0.87263643
H -1.4802412 2.17489484 -0.1110613
H -2.3926066 -0.1378002 -0.7488009
H -1.3430249 -2.0619739 0.12903264
H -0.7939443 -1.0350413 1.43360742
