14
  0.00022406   0.07957171   1.88236871  38.99709264 -231.72842059   2.47280917   0.00000000
C 0.89651812 -1.2725716 -0.2312713
C 1.44577009 -0.0089597 0.24403334
C 0.70735651 1.23456317 0.11407286
C -0.7301119 1.24813566 -0.0852819
C -1.4403376 0.04630729 -0.2361244
C -0.8910076 -1.1188794 0.33832714
H 1.41590391 -2.1119843 0.22252506
H 1.05314490 -1.3489073 -1.3132742
H 2.40037674 -0.0308143 0.75657759
H 1.15911958 2.14294779 0.49182807
H -1.2107170 2.18055113 -0.3240302
H -2.3090295 -0.0197672 -0.8794627
H -1.5356357 -1.9829842 0.15766133
H -0.8543197 -0.9960366 1.42643680
