14
  0.00041210   0.21797861   1.40373238  33.71073678 -231.67787763   7.39080124   0.00000000
C 0.65713377 -1.1898274 -0.1846558
C 1.46626127 -0.0216647 0.19723951
C 0.71148248 1.23571280 0.14952805
C -0.7090188 1.29722665 -0.1274240
C -1.5113718 0.18070015 -0.3609695
C -0.5920023 -1.3317424 0.43983079
H 1.08018706 -2.1130026 0.20351078
H 0.67716427 -1.2780336 -1.2787911
H 2.28149218 -0.1667476 0.89434994
H 1.16189956 2.12617598 0.56432390
H -1.1175847 2.28260974 -0.3368619
H -2.5786673 0.18361243 -0.5389660
H -0.8337106 -2.2680093 -0.0632843
H -0.9606508 -1.4314894 1.45400279
