14
  0.00033142   0.23270436   1.44714066  27.01465994 -231.74161434   6.42754548   0.00000000
C 0.61583724 -1.4391555 -0.2607535
C 1.49271241 0.16081030 0.30146666
C 0.70358726 1.29804785 0.21019154
C -0.6631410 1.24699803 -0.2998182
C -1.4252448 0.05303444 -0.0901057
C -0.7070810 -1.1622063 0.25635619
H 1.14445056 -2.3119950 0.11375837
H 0.70111084 -1.4892843 -1.3496660
H 2.36687904 0.10501438 0.93995903
H 1.01577261 2.20022423 0.71314809
H -1.1494173 2.16734810 -0.5750899
H -2.4579335 -0.0006382 -0.4056856
H -1.3298341 -2.0372435 0.08414618
H -0.5116086 -1.1451296 1.33263419
