14
  0.00021492   0.28107803   1.39594584  21.02712422 -231.62963296   7.39729490   0.00000000
C 0.68763263 -1.1767932 -0.1382822
C 1.48072144 0.01351376 0.16510010
C 0.64792917 1.21631062 0.31973275
C -0.6109857 1.24823981 -0.3723164
C -1.6024335 0.26056268 -0.1095318
C -0.6263792 -1.4071266 0.27279458
H 1.19669489 -2.0778631 0.18861577
H 0.57412634 -1.2598148 -1.2255712
H 2.44393531 -0.0894337 0.64586921
H 1.00202492 2.10174527 0.83954579
H -0.9231719 2.21231166 -0.7572512
H -2.5265485 0.20564085 -0.6759083
H -1.3212317 -2.2477880 0.32128412
H -0.1874808 -1.3227679 1.27630452
