14
  0.00074041   0.26238277   1.49868360  29.71396761 -231.70392169   7.65479034   0.00000000
C 0.68183382 -1.1303528 -0.2176888
C 1.43307101 -0.0003276 0.31682457
C 0.94552363 1.29333923 0.31177946
C -0.8385060 1.18990410 -0.3772752
C -1.4886980 0.04266555 -0.0259132
C -0.7409125 -1.2040887 0.24750834
H 1.18056188 -2.0640501 0.05836800
H 0.74101007 -1.1010030 -1.3173610
H 2.41290603 -0.1961380 0.74033793
H 1.55685269 2.13786297 0.03185527
H -1.1629080 1.86050565 -1.1691889
H -2.5784348 -0.0113450 -0.0340677
H -1.1059872 -2.0111319 -0.3770506
H -0.9746980 -1.5264467 1.27721489
