14
  0.00032096   0.10439601   1.87752730  38.35590143 -231.72295690   1.80993175   0.00000000
C 0.88870248 -1.2336128 -0.2530499
C 1.39989638 0.00319012 0.32609213
C 0.70246174 1.24362040 0.10277867
C -0.6660743 1.25654224 -0.2110667
C -1.4272991 0.07192155 -0.1351732
C -0.8915022 -1.2046789 0.34288854
H 1.45754134 -2.0958617 0.08262010
H 0.96862327 -1.2016288 -1.3447671
H 2.30927004 -0.0284389 0.90395384
H 1.24542435 2.16824500 0.01162925
H -1.1735900 2.20934499 -0.1002503
H -2.4201627 0.06759516 -0.5577348
H -1.3245609 -2.0382398 -0.1959453
H -1.1584303 -1.3478005 1.39672133
