14
  0.00021364   0.15772140   1.88701410  36.50997599 -231.71490109   2.97838546   0.00000000
C 0.92462320 -1.2659799 -0.2536195
C 1.43383473 -0.0343307 0.26340329
C 0.65804109 1.22279250 0.26478081
C -0.6913083 1.23582617 -0.2684781
C -1.4855573 0.08153787 -0.1127892
C -0.8654996 -1.1063878 0.32154357
H 1.56763418 -2.1015452 0.03347430
H 0.97184577 -1.2050962 -1.3420112
H 2.47062099 -0.0084608 0.57496564
H 1.16325607 2.16850527 0.40032343
H -0.9458248 1.95357664 -1.0451922
H -2.5665377 0.11517481 -0.2249463
H -1.3657102 -1.9729931 -0.1081403
H -1.0091067 -1.1740695 1.40305649
