14
  0.00030623   0.21754522   1.44557893  28.16218478 -231.71005587   6.14499075   0.00000000
C 0.62116173 -1.4052181 -0.2691152
C 1.45539149 0.15668364 0.46537619
C 0.72147689 1.27670450 0.06251081
C -0.6789081 1.28013274 -0.1996903
C -1.4198852 0.04902804 -0.0978145
C -0.7237486 -1.2053538 0.22177035
H 1.07338516 -2.2894669 0.17422183
H 0.87630280 -1.4232177 -1.3316643
H 2.51038304 0.15716466 0.68728688
H 1.24451225 2.21814143 -0.0437067
H -1.2027538 2.20912033 -0.0380402
H -2.3054135 -0.0487961 -0.6997335
H -1.3730387 -2.0505222 0.01585479
H -0.5533389 -1.2178624 1.30585804
