14
  0.00025544   0.22445525   1.42733665  29.09231278 -231.70931293   6.90127722   0.00000000
C 0.59494814 -1.4524594 -0.1777240
C 1.53832085 0.17888742 0.18255045
C 0.69630139 1.26933352 0.25912766
C -0.6991528 1.25888831 -0.1430960
C -1.4236746 0.04028776 -0.2548888
C -0.7021795 -1.1398135 0.32922989
H 1.26348186 -2.3019562 -0.0116945
H 0.34909944 -1.4661769 -1.2462244
H 2.46972996 0.13438977 0.73213357
H 1.14768433 2.23500362 0.41288015
H -1.1598178 2.20742350 -0.4076857
H -2.1934744 -0.1135232 -1.0011709
H -1.1600138 -2.0773208 0.01890764
H -0.7930138 -1.1010401 1.42811879
