14
  0.00020097   0.15775311   1.89367185  36.40759214 -231.70115734   3.02558005   0.00000000
C 0.86107745 -1.1766480 -0.2288329
C 1.49683909 0.03781802 0.28816911
C 0.69608475 1.24783311 0.21138849
C -0.6091246 1.17336266 -0.3107852
C -1.4678082 0.03218876 -0.1668850
C -0.9558234 -1.1952625 0.30456890
H 1.25604776 -2.0900315 0.22548557
H 1.04244635 -1.2769306 -1.3067053
H 2.57280823 0.10536625 0.20580627
H 0.91262907 2.07702380 0.88622690
H -1.0819317 2.14107570 -0.4845108
H -2.4748703 0.23241589 0.16785074
H -1.5616141 -2.0502167 0.00042740
H -0.9407212 -1.1947762 1.39367282
