14
  0.00031141   0.19426500   1.88859836  30.25546373 -231.71784626   2.87243762   0.00000000
C 0.89096453 -1.1681064 -0.2173298
C 1.45803022 0.02785654 0.33621833
C 0.70764516 1.24618008 0.21955882
C -0.6075543 1.15438716 -0.3469460
C -1.5146811 0.06450149 -0.0309862
C -0.9435081 -1.2050136 0.23005323
H 1.47447572 -2.0478372 0.02641558
H 0.87094925 -1.1080832 -1.3179307
H 2.49978220 0.03070694 0.63360871
H 1.21058150 2.20404640 0.21350395
H -0.9797584 2.02220972 -0.8787402
H -2.5435226 0.24846290 0.25111752
H -1.4865325 -2.0071964 -0.2510361
H -0.9596750 -1.4043172 1.30380286
