14
  0.00025124   0.13196942   1.89937467  40.49102762 -231.71090012   2.68162980   0.00000000
C 0.87029836 -1.1364537 -0.2601896
C 1.46381702 0.00028146 0.39075083
C 0.73462090 1.22745840 0.13621802
C -0.6692806 1.22510866 -0.1764922
C -1.4640226 0.01714036 -0.1388760
C -0.9440945 -1.2094578 0.29683178
H 1.37276987 -2.0535828 0.03766182
H 1.02626906 -1.0348293 -1.3418991
H 2.53767843 0.01942841 0.51612601
H 1.28367924 2.12521880 -0.1236853
H -1.0272400 2.05470194 -0.7687986
H -2.5362389 0.07704071 -0.3070385
H -1.5312977 -2.0397757 -0.0981097
H -1.0445642 -1.2610680 1.37903233
